@<TRIPOS>MOLECULE
UNL
   15    15     1     0     0
SMALL
bcc


@<TRIPOS>ATOM
      1 C           -0.9830     0.0000     0.0000 ca         1 UNL      -0.077300
      2 C1          -0.2850     1.2080     0.0000 ca         1 UNL      -0.131000
      3 C2          -0.2850    -1.2080     0.0000 ca         1 UNL      -0.131000
      4 C3          -2.4740     0.0000    -0.0000 c3         1 UNL      -0.053800
      5 C4           1.1100     1.2080    -0.0000 ca         1 UNL      -0.127000
      6 C5           1.1100    -1.2080     0.0000 ca         1 UNL      -0.127000
      7 C6           1.8070     0.0000    -0.0000 ca         1 UNL      -0.135000
      8 H           -0.8170     2.1560    -0.0020 ha         1 UNL       0.130000
      9 H1          -0.8170    -2.1560    -0.0020 ha         1 UNL       0.130000
     10 H2          -2.8690    -0.8800     0.5180 hc         1 UNL       0.044033
     11 H3          -2.8690     0.8810     0.5170 hc         1 UNL       0.044033
     12 H4          -2.8490    -0.0000    -1.0280 hc         1 UNL       0.044033
     13 H5           1.6530     2.1480    -0.0010 ha         1 UNL       0.130000
     14 H6           1.6530    -2.1480    -0.0010 ha         1 UNL       0.130000
     15 H7           2.8930    -0.0000    -0.0000 ha         1 UNL       0.130000
@<TRIPOS>BOND
     1     1     2 ar  
     2     1     3 ar  
     3     1     4 1   
     4     2     5 ar  
     5     2     8 1   
     6     3     6 ar  
     7     3     9 1   
     8     4    10 1   
     9     4    11 1   
    10     4    12 1   
    11     5     7 ar  
    12     5    13 1   
    13     6     7 ar  
    14     6    14 1   
    15     7    15 1   
@<TRIPOS>SUBSTRUCTURE
     1 UNL         1 TEMP              0 ****  ****    0 ROOT
