@<TRIPOS>MOLECULE
TOl
   58    60     1     0     0
SMALL
bcc


@<TRIPOS>ATOM
      1 N            4.9740     2.7140     0.0240 nh         1 TOl      -0.267100
      2 N1          -4.9860     2.6950    -0.0230 nh         1 TOl      -0.649000
      3 N2           0.0130    -5.4280     0.0010 nh         1 TOl      -0.649000
      4 C           -0.0010     0.0270    -0.0010 ce         1 TOl       0.306600
      5 C1           1.3070     0.7340     0.0060 cd         1 TOl      -0.219000
      6 C2          -1.3110     0.7290    -0.0070 ca         1 TOl      -0.230800
      7 C3           0.0030    -1.3160    -0.0010 ca         1 TOl      -0.230800
      8 C4           1.8870     1.0490     1.2170 cd         1 TOl      -0.009000
      9 C5          -1.8920     1.0430    -1.2180 ca         1 TOl      -0.009000
     10 C6           1.8980     1.0500    -1.1990 cd         1 TOl      -0.009000
     11 C7          -1.9030     1.0420     1.1980 ca         1 TOl      -0.009000
     12 C8          -1.2530    -2.0510    -0.0070 ca         1 TOl      -0.009000
     13 C9           1.2620    -2.0450     0.0050 ca         1 TOl      -0.009000
     14 C10          3.7330     2.0440     0.0180 cc         1 TOl       0.416900
     15 C11         -3.7430     2.0300    -0.0180 ca         1 TOl       0.270600
     16 C12          0.0090    -4.1440     0.0000 ca         1 TOl       0.270600
     17 C13          3.1140     1.7120     1.2230 cc         1 TOl      -0.323600
     18 C14         -3.1220     1.7020    -1.2230 ca         1 TOl      -0.237000
     19 C15          3.1260     1.7130    -1.1930 cc         1 TOl      -0.323600
     20 C16         -3.1330     1.7000     1.1930 ca         1 TOl      -0.237000
     21 C17         -1.2720    -3.3910    -0.0060 ca         1 TOl      -0.237000
     22 C18          1.2880    -3.3850     0.0050 ca         1 TOl      -0.237000
     23 C19          5.9280     2.5030    -1.0470 c3         1 TOl       0.013600
     24 C20          5.3180     3.6120     1.1090 c3         1 TOl       0.013600
     25 C21         -5.9390     2.4790     1.0480 c3         1 TOl       0.191100
     26 C22         -5.3330     3.5930    -1.1060 c3         1 TOl       0.191100
     27 C23          1.2810    -6.2020     0.0050 c3         1 TOl       0.191100
     28 C24         -1.2520    -6.2080    -0.0050 c3         1 TOl       0.191100
     29 H            1.4150     0.7930     2.1610 ha         1 TOl       0.150000
     30 H1          -1.4190     0.7900    -2.1620 ha         1 TOl       0.150000
     31 H2           1.4330     0.8000    -2.1480 ha         1 TOl       0.150000
     32 H3          -1.4370     0.7910     2.1470 ha         1 TOl       0.150000
     33 H4          -2.2170    -1.5570    -0.0110 ha         1 TOl       0.150000
     34 H5           2.2240    -1.5460     0.0080 ha         1 TOl       0.150000
     35 H6           3.5660     1.9440     2.1830 ha         1 TOl       0.153000
     36 H7          -3.5750     1.9330    -2.1830 ha         1 TOl       0.153000
     37 H8           3.5760     1.9680    -2.1480 ha         1 TOl       0.153000
     38 H9          -3.5840     1.9510     2.1490 ha         1 TOl       0.153000
     39 H10         -2.2300    -3.8970    -0.0100 ha         1 TOl       0.153000
     40 H11          2.2480    -3.8860     0.0100 ha         1 TOl       0.153000
     41 H12          6.9360     2.8080    -0.7440 h1         1 TOl       0.057033
     42 H13          5.6570     3.0920    -1.9290 h1         1 TOl       0.057033
     43 H14          5.9890     1.4450    -1.3260 h1         1 TOl       0.057033
     44 H15          4.4660     4.2390     1.3970 h1         1 TOl       0.057033
     45 H16          5.6630     3.0510     1.9830 h1         1 TOl       0.057033
     46 H17          6.1250     4.2940     0.8160 h1         1 TOl       0.057033
     47 H18         -5.9960     1.4200     1.3260 h1         1 TOl       0.057033
     48 H19         -6.9480     2.7790     0.7460 h1         1 TOl       0.057033
     49 H20         -5.6700     3.0680     1.9310 h1         1 TOl       0.057033
     50 H21         -5.6760     3.0310    -1.9820 h1         1 TOl       0.057033
     51 H22         -4.4840     4.2230    -1.3940 h1         1 TOl       0.057033
     52 H23         -6.1430     4.2710    -0.8130 h1         1 TOl       0.057033
     53 H24          1.8400    -5.9630     0.9150 h1         1 TOl       0.057033
     54 H25          1.8470    -5.9630    -0.8990 h1         1 TOl       0.057033
     55 H26          1.0640    -7.2740     0.0040 h1         1 TOl       0.057033
     56 H27         -1.8120    -5.9730    -0.9140 h1         1 TOl       0.057033
     57 H28         -1.8200    -5.9710     0.9000 h1         1 TOl       0.057033
     58 H29         -1.0300    -7.2790    -0.0030 h1         1 TOl       0.057033
@<TRIPOS>BOND
     1     1    14 2   
     2     1    23 1   
     3     1    24 1   
     4     2    15 1   
     5     2    25 1   
     6     2    26 1   
     7     3    16 1   
     8     3    27 1   
     9     3    28 1   
    10     4     5 2   
    11     4     6 1   
    12     4     7 1   
    13     5     8 1   
    14     5    10 1   
    15     6     9 ar  
    16     6    11 ar  
    17     7    12 ar  
    18     7    13 ar  
    19     8    17 2   
    20     8    29 1   
    21     9    18 ar  
    22     9    30 1   
    23    10    19 2   
    24    10    31 1   
    25    11    20 ar  
    26    11    32 1   
    27    12    21 ar  
    28    12    33 1   
    29    13    22 ar  
    30    13    34 1   
    31    14    17 1   
    32    14    19 1   
    33    15    18 ar  
    34    15    20 ar  
    35    16    21 ar  
    36    16    22 ar  
    37    17    35 1   
    38    18    36 1   
    39    19    37 1   
    40    20    38 1   
    41    21    39 1   
    42    22    40 1   
    43    23    41 1   
    44    23    42 1   
    45    23    43 1   
    46    24    44 1   
    47    24    45 1   
    48    24    46 1   
    49    25    47 1   
    50    25    48 1   
    51    25    49 1   
    52    26    50 1   
    53    26    51 1   
    54    26    52 1   
    55    27    53 1   
    56    27    54 1   
    57    27    55 1   
    58    28    56 1   
    59    28    57 1   
    60    28    58 1   
@<TRIPOS>SUBSTRUCTURE
     1 TOl         1 TEMP              0 ****  ****    0 ROOT
